CNPHOS
  --CCDC--020822    3D                              

 45 50  0  0  0  0  0  0  0  0999 V2000
   -0.4268    3.5010    3.5179 Os     0
   -1.8708    5.3346    3.1451 Cl     0
    1.3141    4.8304    4.4124 Cl     0
   -1.9269    1.8950    2.6710 Cl     0
    0.5009    3.7930    1.3182 P      0
   -1.3722    3.1197    5.7005 P      0
    0.8291    1.9300    3.8481 N      0
    1.4771    1.0374    4.0493 C      0
    2.3144   -0.1234    4.3014 C      0
   -0.6223    3.5843   -0.1179 C      0
   -0.0964    3.2736   -1.3760 C      0
   -0.9402    3.1410   -2.4860 C      0
   -2.2596    3.2934   -2.3380 C      0
   -2.8174    3.6178   -1.1239 C      0
   -1.9838    3.7519    0.0046 C      0
    1.3352    5.3635    0.8742 C      0
    0.9307    6.5563    1.4130 C      0
    1.4631    7.7627    0.9713 C      0
    2.4050    7.7643   -0.0208 C      0
    2.8427    6.5989   -0.5781 C      0
    2.2951    5.3879   -0.1203 C      0
    1.7626    2.5150    1.0592 C      0
    3.0624    2.6947    1.5217 C      0
    3.9773    1.6269    1.4615 C      0
    3.5671    0.4143    0.9898 C      0
    2.2982    0.2148    0.5758 C      0
    1.3734    1.2384    0.6105 C      0
   -0.5663    1.7198    6.5307 C      0
   -0.9549    0.4204    6.1630 C      0
   -0.2856   -0.6657    6.7828 C      0
    0.7004   -0.4280    7.6847 C      0
    1.0982    0.7875    7.9969 C      0
    0.4830    1.8996    7.4025 C      0
   -1.2851    4.4831    6.9169 C      0
   -1.4984    4.2333    8.2767 C      0
   -1.5253    5.2889    9.1716 C      0
   -1.3551    6.5685    8.7554 C      0
   -1.1368    6.8244    7.4210 C      0
   -1.0787    5.7855    6.5076 C      0
   -3.1639    2.7069    5.8230 C      0
   -4.0456    3.2675    4.9304 C      0
   -5.4264    3.1091    5.1131 C      0
   -5.8870    2.3261    6.1306 C      0
   -5.0242    1.7107    6.9863 C      0
   -3.6396    1.8996    6.8475 C      0
  1  2  1
  3  1  1
  4  1  1
  5  1  1
  6  1  1
  7  1  1
  8  7  3
  9  8  1
 10  5  1
 11 10  4
 12 11  4
 13 12  4
 14 13  4
 15 10  4
 16  5  1
 17 16  4
 18 17  4
 19 18  4
 20 19  4
 21 16  4
 22  5  1
 23 22  4
 24 23  4
 25 24  4
 26 25  4
 27 22  4
 28  6  1
 29 28  4
 30 29  4
 31 30  4
 32 31  4
 33 28  4
 34  6  1
 35 34  4
 36 35  4
 37 36  4
 38 37  4
 39 34  4
 40  6  1
 41 40  4
 42 41  4
 43 42  4
 44 43  4
 45 40  4
 14 15  4
 20 21  4
 26 27  4
 32 33  4
 38 39  4
 44 45  4
M  END
$$$$
